Version 4
SHEET 1 880 680
WIRE 80 -272 0 -272
WIRE 112 -272 80 -272
WIRE 240 -272 192 -272
WIRE 288 -272 240 -272
WIRE 144 -192 0 -192
WIRE 288 -192 288 -208
WIRE 288 -192 144 -192
WIRE 144 -160 144 -192
FLAG 240 -272 "Vout"
FLAG 144 -160 0
FLAG 80 -272 "Vin"
SYMBOL res 208 -288 R90
WINDOW 0 0 56 VBottom 2
WINDOW 3 32 56 VTop 2
SYMATTR InstName R1
SYMATTR Value 1.2k
SYMBOL cap 272 -272 R0
SYMATTR InstName C1
SYMATTR Value 0.1µ
SYMBOL voltage 0 -288 R0
WINDOW 0 -53 27 Left 2
WINDOW 3 -200 74 Left 2
WINDOW 123 -203 100 Left 2
SYMATTR InstName V1
SYMATTR Value SINE(0 1 1KHz)
SYMATTR Value2 AC 1 0
TEXT 232 -168 Left 2 !.ac dec 100 1 10000
